
#======================================================================
# CRYSTAL DATA
#----------------------------------------------------------------------
data_VESTA_phase_1

_chemical_name_common                  'Ag4'
_cell_length_a                         2.941952
_cell_length_b                         2.941952
_cell_length_c                         7.206281
_cell_angle_alpha                      90.000000
_cell_angle_beta                       90.000000
_cell_angle_gamma                      120.000000
_cell_volume                           54.014816
_space_group_name_H-M_alt              'P 1'
_space_group_IT_number                 1

loop_
_space_group_symop_operation_xyz
   'x, y, z'

loop_
   _atom_site_label
   _atom_site_occupancy
   _atom_site_fract_x
   _atom_site_fract_y
   _atom_site_fract_z
   _atom_site_adp_type
   _atom_site_U_iso_or_equiv
   _atom_site_type_symbol
   Ag0        1.0     0.333333     0.666667     0.666667    Uiso  ? Ag
   Ag0        1.0     0.000000     0.000000     0.000000    Uiso  ? Ag
   Ag0        1.0     0.666667     0.333333     0.333333    Uiso  ? Ag
   Ag1        1.0     0.000000     0.000000     0.000000    Uiso  ? Ag
   Ag1        1.0     0.666667     0.333333     0.333333    Uiso  ? Ag
   Ag1        1.0     0.333333     0.666667     0.666667    Uiso  ? Ag
   Ag2        1.0     0.000000     0.000000     0.000000    Uiso  ? Ag
   Ag2        1.0     0.666667     0.333333     0.333333    Uiso  ? Ag
   Ag2        1.0     0.333333     0.666667     0.666667    Uiso  ? Ag
   Ag3        1.0     0.000000     0.000000     0.000000    Uiso  ? Ag
   Ag3        1.0     0.666667     0.333333     0.333333    Uiso  ? Ag
   Ag3        1.0     0.333333     0.666667     0.666667    Uiso  ? Ag
